  Page 1                                    Fri Jun 08 09:46:35 2018

  ******************************************************************
  *                           E P A N E T                          *
  *                   Hydraulic and Water Quality                  *
  *                   Analysis for Pipe Networks                   *
  *                         Version 2.00.12                        *
  ******************************************************************
  
  Analysis begun Fri Jun 08 09:46:35 2018

  Analysis ended Fri Jun 08 09:46:36 2018
